/*--------------------------------*- C++ -*----------------------------------*\
  =========                 |
  \\      /  F ield         | OpenFOAM: The Open Source CFD Toolbox
   \\    /   O peration     | Website:  https://openfoam.org
    \\  /    A nd           | Version:  8
     \\/     M anipulation  |
\*---------------------------------------------------------------------------*/
FoamFile
{
    version     2.0;
    format      ascii;
    class       dictionary;
    object      fvOptions;
}
// * * * * * * * * * * * * * * * * * * * * * * * * * * * * * * * * * * * * * //


heatSourceTerm
{
    type            semiImplicitSource;
    selectionMode   cellZone;
    cellZone        heatZone;
    volumeMode      absolute;
    sources
    {
        h
        {
            explicit    1000; //1000 Watt source
            implicit    0;
        }
    }
}

porousSourceTerm
{
    type           explicitPorositySource;
    active         true;

    explicitPorositySourceCoeffs
    {
        type           DarcyForchheimer;
        selectionMode  cellZone;
        cellZone       porousZone; // Specify the name of the cellZone

        DarcyForchheimerCoeffs
        {
            d          [0 -2 0 0 0 0 0] (1e7 -1000 -1000);
            f          [0 -1 0 0 0 0 0] (0 0 0);

            coordinateSystem // Cartesian coordinates for the cellZone
            {
                x          (1 0 0);
                y          (0 1 0);
                #includeEtc "caseDicts/general/coordinateSystem/cartesianXY"
            }
        }
    }
}

//************************************************************************** //
